  Page 1                                    Fri Dec 26 02:54:43 2025

  ******************************************************************
  *                           E P A N E T                          *
  *                   Hydraulic and Water Quality                  *
  *                   Analysis for Pipe Networks                   *
  *                         Version 2.2                            *
  ******************************************************************
  
  Analysis begun Fri Dec 26 02:54:43 2025

  Analysis ended Fri Dec 26 02:54:43 2025
