  Page 1                                    Thu Dec 25 00:22:15 2025

  ******************************************************************
  *                           E P A N E T                          *
  *                   Hydraulic and Water Quality                  *
  *                   Analysis for Pipe Networks                   *
  *                         Version 2.2                            *
  ******************************************************************
  
  Analysis begun Thu Dec 25 00:22:15 2025

  Analysis ended Thu Dec 25 00:22:17 2025
